<?xml version="1.0" encoding="UTF-8"?>

<!-- generated on 2025-11-28 16:11:07 by 
<configuration xmlns:xsi="http://www.w3.org/2001/XMLSchema-instance" xsi:noNamespaceSchemaLocation="http://sumo.dlr.de/xsd/Configuration.xsd">

    <input>
        <osm-files value="TRUE"/>
    </input>

    <output>
        <opendrive-output value="TRUE"/>
    </output>

    <projection>
        <proj value="+proj=tmerc"/>
    </projection>

    <processing>
        <geometry.remove value="true"/>
        <offset.disable-normalization value="true"/>
        <roundabouts.guess value="true"/>
        <edges.join value="true"/>
    </processing>

    <building_defaults>
        <default.lanewidth value="3.500000"/>
        <default.sidewalk-width value="2.800000"/>
    </building_defaults>

    <tls_building>
        <tls.group-signals value="true"/>
    </tls_building>

    <ramp_guessing>
        <ramps.guess value="true"/>
    </ramp_guessing>

    <edge_removal>
        <keep-edges.by-type value="highway.motorway,highway.motorway_link,highway.trunk,highway.trunk_link,highway.primary,highway.primary_link,highway.secondary,highway.secondary_link,highway.tertiary,highway.tertiary_link,highway.unclassified,highway.residential,"/>
    </edge_removal>

    <junctions>
        <junctions.join value="true"/>
    </junctions>

    <pedestrian>
        <sidewalks.guess value="true"/>
    </pedestrian>

    <formats>
        <osm.sidewalks value="true"/>
        <osm.crossings value="true"/>
    </formats>

    <report>
        <aggregate-warnings value="5"/>
    </report>

</configuration>
-->

<OpenDRIVE>
    <header revMajor="1" revMinor="4" name="" version="1.00" date="Fri Nov 28 16:11:07 2025" north="8147628.30" south="8145201.56" east="-6130507.08" west="-6133180.83">
        <geoReference>
 <![CDATA[
 +proj=tmerc
]]>
        </geoReference>
    </header>
    <road name="North Scott Street" length="130.38163811" id="280" junction="-1">
        <link>
            <predecessor elementType="junction" elementId="1"/>
            <successor elementType="junction" elementId="2"/>
        </link>
        <type s="0" type="town"/>
        <planView>
            <geometry s="0.00000000" x="-6132064.19809403" y="8146805.88111649" hdg="3.03908525" length="85.30903553">
                <line/>
            </geometry>
            <geometry s="85.30903553" x="-6132149.05931810" y="8146814.61061766" hdg="3.03908525" length="13.88999998">
                <paramPoly3 aU="0.00000000" bU="10.41749998" cU="10.41749999" dU="-6.94500001" aV="-0.00000000" bV="0.00000000" cV="-0.00113335" dV="0.00037778" pRange="normalized"/>
            </geometry>
            <geometry s="99.19903551" x="-6132162.87632818" y="8146816.03270489" hdg="3.03897646" length="31.18260260">
                <line/>
            </geometry>
        </planView>
        <elevationProfile>
            <elevation s="0" a="0.00" b="0" c="0" d="0"/>
        </elevationProfile>
        <lateralProfile/>
        <lanes>
            <laneSection s="0">
                <center>
                    <lane id="0" type="none" level="true">
                        <link/>
                        <roadMark sOffset="0" type="solid" weight="standard" color="standard" width="0.13" laneChange="none"/>
                    </lane>
                </center>
                <right>
                    <lane id="-1" type="driving" level="true">
                        <link/>
                        <width sOffset="0" a="3.50" b="0" c="0" d="0"/>
                        <roadMark sOffset="0" type="solid" weight="standard" color="standard" width="0.13" laneChange="none"/>
                        <speed sOffset="0" max="13.89"/>
                    </lane>
                    <lane id="-2" type="sidewalk" level="true">
                        <link/>
                        <width sOffset="0" a="2.80" b="0" c="0" d="0"/>
                        <roadMark sOffset="0" type="solid" weight="standard" color="standard" width="0.13" laneChange="none"/>
                        <speed sOffset="0" max="13.89"/>
                    </lane>
                 </right>
            </laneSection>
        </lanes>
        <objects/>
    </road>
    <road name="North Scott Street" length="79.07258317" id="281" junction="-1">
        <link>
            <predecessor elementType="junction" elementId="3"/>
            <successor elementType="junction" elementId="1"/>
        </link>
        <type s="0" type="town"/>
        <planView>
            <geometry s="0.00000000" x="-6131972.78033186" y="8146796.42619486" hdg="3.03864898" length="15.95414970">
                <line/>
            </geometry>
            <geometry s="15.95414970" x="-6131988.65001993" y="8146798.06567441" hdg="3.03864898" length="13.88999995">
                <paramPoly3 aU="0.00000000" bU="10.41749995" cU="10.41749994" dU="-6.94500003" aV="-0.00000000" bV="-0.00000000" cV="-0.00208209" dV="0.00069403" pRange="normalized"/>
            </geometry>
            <geometry s="29.84414964" x="-6132002.46634318" y="8146799.49441860" hdg="3.03844911" length="49.22843353">
                <line/>
            </geometry>
        </planView>
        <elevationProfile>
            <elevation s="0" a="0.00" b="0" c="0" d="0"/>
        </elevationProfile>
        <lateralProfile/>
        <lanes>
            <laneSection s="0">
                <center>
                    <lane id="0" type="none" level="true">
                        <link/>
                        <roadMark sOffset="0" type="solid" weight="standard" color="standard" width="0.13" laneChange="none"/>
                    </lane>
                </center>
                <right>
                    <lane id="-1" type="driving" level="true">
                        <link/>
                        <width sOffset="0" a="3.50" b="0" c="0" d="0"/>
                        <roadMark sOffset="0" type="solid" weight="standard" color="standard" width="0.13" laneChange="none"/>
                        <speed sOffset="0" max="13.89"/>
                    </lane>
                    <lane id="-2" type="sidewalk" level="true">
                        <link/>
                        <width sOffset="0" a="2.80" b="0" c="0" d="0"/>
                        <roadMark sOffset="0" type="solid" weight="standard" color="standard" width="0.13" laneChange="none"/>
                        <speed sOffset="0" max="13.89"/>
                    </lane>
                 </right>
            </laneSection>
        </lanes>
        <objects/>
    </road>
    <road name="South Scott Street" length="79.80115573" id="282" junction="-1">
        <link>
            <predecessor elementType="junction" elementId="4"/>
            <successor elementType="junction" elementId="2"/>
        </link>
        <type s="0" type="town"/>
        <planView>
            <geometry s="0.00000000" x="-6132286.08388192" y="8146828.58469862" hdg="-0.10107633" length="79.80115573">
                <line/>
            </geometry>
        </planView>
        <elevationProfile>
            <elevation s="0" a="0.00" b="0" c="0" d="0"/>
        </elevationProfile>
        <lateralProfile/>
        <lanes>
            <laneSection s="0">
                <center>
                    <lane id="0" type="none" level="true">
                        <link/>
                        <roadMark sOffset="0" type="solid" weight="standard" color="standard" width="0.13" laneChange="none"/>
                    </lane>
                </center>
                <right>
                    <lane id="-1" type="driving" level="true">
                        <link/>
                        <width sOffset="0" a="3.50" b="0" c="0" d="0"/>
                        <roadMark sOffset="0" type="solid" weight="standard" color="standard" width="0.13" laneChange="none"/>
                        <speed sOffset="0" max="13.89"/>
                    </lane>
                    <lane id="-2" type="sidewalk" level="true">
                        <link/>
                        <width sOffset="0" a="2.80" b="0" c="0" d="0"/>
                        <roadMark sOffset="0" type="solid" weight="standard" color="standard" width="0.13" laneChange="none"/>
                        <speed sOffset="0" max="13.89"/>
                    </lane>
                 </right>
            </laneSection>
        </lanes>
        <objects/>
    </road>
    <road name="South Scott Street" length="889.90665218" id="283" junction="-1">
        <link>
            <predecessor elementType="junction" elementId="5"/>
            <successor elementType="junction" elementId="4"/>
        </link>
        <type s="0" type="town"/>
        <planView>
            <geometry s="0.00000000" x="-6133180.82519498" y="8146919.39014229" hdg="-0.10100995" length="54.44765241">
                <line/>
            </geometry>
            <geometry s="54.44765241" x="-6133126.65507144" y="8146913.89973533" hdg="-0.10100995" length="13.88999995">
                <paramPoly3 aU="0.00000000" bU="10.41749995" cU="10.41749995" dU="-6.94500004" aV="0.00000000" bV="-0.00000000" cV="-0.00206662" dV="0.00068887" pRange="normalized"/>
            </geometry>
            <geometry s="68.33765236" x="-6133112.83601018" y="8146912.49772108" hdg="-0.10120833" length="86.99785337">
                <line/>
            </geometry>
            <geometry s="155.33550573" x="-6133026.28334157" y="8146903.70783780" hdg="-0.10120833" length="13.88999999">
                <paramPoly3 aU="0.00000000" bU="10.41749999" cU="10.41749999" dU="-6.94500000" aV="0.00000000" bV="0.00000000" cV="0.00066891" dV="-0.00022297" pRange="normalized"/>
            </geometry>
            <geometry s="169.22550573" x="-6133012.46437433" y="8146902.30489650" hdg="-0.10114412" length="34.70589742">
                <line/>
            </geometry>
            <geometry s="203.93140314" x="-6132977.93584859" y="8146898.80058122" hdg="-0.10114412" length="13.88999998">
                <paramPoly3 aU="0.00000000" bU="10.41749998" cU="10.41749998" dU="-6.94500001" aV="0.00000000" bV="0.00000000" cV="0.00121670" dV="-0.00040557" pRange="normalized"/>
            </geometry>
            <geometry s="217.82140312" x="-6132964.11675445" y="8146897.39889057" hdg="-0.10102732" length="39.03164495">
                <line/>
            </geometry>
            <geometry s="256.85304807" x="-6132925.28412878" y="8146893.46233237" hdg="-0.10102732" length="13.89000000">
                <paramPoly3 aU="0.00000000" bU="10.41750000" cU="10.41750000" dU="-6.94500000" aV="0.00000000" bV="0.00000000" cV="-0.00049424" dV="0.00016475" pRange="normalized"/>
            </geometry>
            <geometry s="270.74304807" x="-6132911.46498603" y="8146892.06112090" hdg="-0.10107477" length="35.15347272">
                <line/>
            </geometry>
            <geometry s="305.89652079" x="-6132876.49092634" y="8146888.51403861" hdg="-0.10107477" length="13.88999994">
                <paramPoly3 aU="0.00000000" bU="10.41749994" cU="10.41749994" dU="-6.94500004" aV="0.00000000" bV="0.00000000" cV="-0.00215369" dV="0.00071790" pRange="normalized"/>
            </geometry>
            <geometry s="319.78652073" x="-6132862.67196185" y="8146887.11107088" hdg="-0.10128150" length="47.60341412">
                <line/>
            </geometry>
            <geometry s="367.38993485" x="-6132815.31249564" y="8146882.29796412" hdg="-0.10128150" length="13.89000000">
                <paramPoly3 aU="0.00000000" bU="10.41750000" cU="10.41750000" dU="-6.94500000" aV="0.00000000" bV="0.00000000" cV="0.00026464" dV="-0.00008821" pRange="normalized"/>
            </geometry>
            <geometry s="381.27993485" x="-6132801.49365834" y="8146880.89374347" hdg="-0.10125610" length="46.66517387">
                <line/>
            </geometry>
            <geometry s="427.94510872" x="-6132755.06750444" y="8146876.17668013" hdg="-0.10125610" length="13.88999986">
                <paramPoly3 aU="0.00000000" bU="10.41749987" cU="10.41749986" dU="-6.94500009" aV="0.00000000" bV="-0.00000000" cV="0.00332757" dV="-0.00110919" pRange="normalized"/>
            </geometry>
            <geometry s="441.83510858" x="-6132741.24842542" y="8146874.77484206" hdg="-0.10093668" length="32.56326487">
                <line/>
            </geometry>
            <geometry s="474.39837346" x="-6132708.85090050" y="8146871.49359255" hdg="-0.10093668" length="13.88999996">
                <paramPoly3 aU="0.00000000" bU="10.41749996" cU="10.41749996" dU="-6.94500002" aV="0.00000000" bV="0.00000000" cV="-0.00183862" dV="0.00061287" pRange="normalized"/>
            </geometry>
            <geometry s="488.28837341" x="-6132695.03172121" y="8146870.09274204" hdg="-0.10111317" length="33.01713279">
                <line/>
            </geometry>
            <geometry s="521.30550621" x="-6132662.18322616" y="8146866.75996079" hdg="-0.10111317" length="13.88999991">
                <paramPoly3 aU="0.00000000" bU="10.41749992" cU="10.41749991" dU="-6.94500006" aV="0.00000000" bV="0.00000000" cV="-0.00266794" dV="0.00088931" pRange="normalized"/>
            </geometry>
            <geometry s="535.19550612" x="-6132648.36435025" y="8146865.35612127" hdg="-0.10136927" length="36.75303652">
                <line/>
            </geometry>
            <geometry s="571.94854264" x="-6132611.79998421" y="8146861.63686999" hdg="-0.10136927" length="13.88999984">
                <paramPoly3 aU="0.00000000" bU="10.41749985" cU="10.41749985" dU="-6.94500010" aV="0.00000000" bV="-0.00000000" cV="0.00354349" dV="-0.00118116" pRange="normalized"/>
            </geometry>
            <geometry s="585.83854248" x="-6132597.98104940" y="8146860.23361119" hdg="-0.10102913" length="101.20694220">
                <line/>
            </geometry>
            <geometry s="687.04548468" x="-6132497.29017180" y="8146850.02614737" hdg="-0.10102913" length="13.88999998">
                <paramPoly3 aU="0.00000000" bU="10.41749998" cU="10.41749998" dU="-6.94500001" aV="0.00000000" bV="0.00000000" cV="-0.00119835" dV="0.00039945" pRange="normalized"/>
            </geometry>
            <geometry s="700.93548466" x="-6132483.47107896" y="8146848.62444398" hdg="-0.10114416" length="100.76294965">
                <line/>
            </geometry>
            <geometry s="801.69843431" x="-6132383.22309965" y="8146838.45022825" hdg="-0.10114416" length="13.88999999">
                <paramPoly3 aU="0.00000000" bU="10.41749999" cU="10.41749999" dU="-6.94500000" aV="0.00000000" bV="0.00000000" cV="-0.00088833" dV="0.00029611" pRange="normalized"/>
            </geometry>
            <geometry s="815.58843430" x="-6132369.40414725" y="8146837.04714085" hdg="-0.10122943" length="74.31821788">
                <line/>
            </geometry>
        </planView>
        <elevationProfile>
            <elevation s="0" a="0.00" b="0" c="0" d="0"/>
        </elevationProfile>
        <lateralProfile/>
        <lanes>
            <laneSection s="0">
                <center>
                    <lane id="0" type="none" level="true">
                        <link/>
                        <roadMark sOffset="0" type="solid" weight="standard" color="standard" width="0.13" laneChange="none"/>
                    </lane>
                </center>
                <right>
                    <lane id="-1" type="driving" level="true">
                        <link/>
                        <width sOffset="0" a="3.50" b="0" c="0" d="0"/>
                        <roadMark sOffset="0" type="solid" weight="standard" color="standard" width="0.13" laneChange="none"/>
                        <speed sOffset="0" max="13.89"/>
                    </lane>
                    <lane id="-2" type="sidewalk" level="true">
                        <link/>
                        <width sOffset="0" a="2.80" b="0" c="0" d="0"/>
                        <roadMark sOffset="0" type="solid" weight="standard" color="standard" width="0.13" laneChange="none"/>
                        <speed sOffset="0" max="13.89"/>
                    </lane>
                 </right>
            </laneSection>
        </lanes>
        <objects/>
    </road>
    <road name="Conrad Street" length="82.51402348" id="284" junction="-1">
        <link>
            <predecessor elementType="junction" elementId="3"/>
            <successor elementType="junction" elementId="6"/>
        </link>
        <type s="0" type="town"/>
        <planView>
            <geometry s="0.00000000" x="-6131965.83175096" y="8146787.84158048" hdg="-1.67772882" length="82.51402348">
                <line/>
            </geometry>
        </planView>
        <elevationProfile>
            <elevation s="0" a="0.00" b="0" c="0" d="0"/>
        </elevationProfile>
        <lateralProfile/>
        <lanes>
            <laneSection s="0">
                <center>
                    <lane id="0" type="none" level="true">
                        <link/>
                        <roadMark sOffset="0" type="solid" weight="standard" color="standard" width="0.13" laneChange="none"/>
                    </lane>
                </center>
                <right>
                    <lane id="-1" type="driving" level="true">
                        <link/>
                        <width sOffset="0" a="3.50" b="0" c="0" d="0"/>
                        <roadMark sOffset="0" type="solid" weight="standard" color="standard" width="0.13" laneChange="none"/>
                        <speed sOffset="0" max="13.89"/>
                    </lane>
                    <lane id="-2" type="sidewalk" level="true">
                        <link/>
                        <width sOffset="0" a="2.80" b="0" c="0" d="0"/>
                        <roadMark sOffset="0" type="solid" weight="standard" color="standard" width="0.13" laneChange="none"/>
                        <speed sOffset="0" max="13.89"/>
                    </lane>
                 </right>
            </laneSection>
        </lanes>
        <objects/>
    </road>
    <road name="North Scott Street" length="86.10186263" id="285" junction="-1">
        <link>
            <predecessor elementType="junction" elementId="7"/>
            <successor elementType="junction" elementId="3"/>
        </link>
        <type s="0" type="town"/>
        <planView>
            <geometry s="0.00000000" x="-6131871.61425043" y="8146786.00162476" hdg="3.03901338" length="64.14197370">
                <line/>
            </geometry>
            <geometry s="64.14197370" x="-6131935.41905271" y="8146792.56972913" hdg="3.03901338" length="13.88999985">
                <paramPoly3 aU="0.00000000" bU="10.41749986" cU="10.41749985" dU="-6.94500009" aV="-0.00000000" bV="-0.00000000" cV="-0.00345892" dV="0.00115298" pRange="normalized"/>
            </geometry>
            <geometry s="78.03197355" x="-6131949.23580144" y="8146793.99435160" hdg="3.03868135" length="8.06988909">
                <line/>
            </geometry>
        </planView>
        <elevationProfile>
            <elevation s="0" a="0.00" b="0" c="0" d="0"/>
        </elevationProfile>
        <lateralProfile/>
        <lanes>
            <laneSection s="0">
                <center>
                    <lane id="0" type="none" level="true">
                        <link/>
                        <roadMark sOffset="0" type="solid" weight="standard" color="standard" width="0.13" laneChange="none"/>
                    </lane>
                </center>
                <right>
                    <lane id="-1" type="driving" level="true">
                        <link/>
                        <width sOffset="0" a="3.50" b="0" c="0" d="0"/>
                        <roadMark sOffset="0" type="solid" weight="standard" color="standard" width="0.13" laneChange="none"/>
                        <speed sOffset="0" max="13.89"/>
                    </lane>
                    <lane id="-2" type="sidewalk" level="true">
                        <link/>
                        <width sOffset="0" a="2.80" b="0" c="0" d="0"/>
                        <roadMark sOffset="0" type="solid" weight="standard" color="standard" width="0.13" laneChange="none"/>
                        <speed sOffset="0" max="13.89"/>
                    </lane>
                 </right>
            </laneSection>
        </lanes>
        <objects/>
    </road>
    <road name="North Scott Street" length="1245.10359046" id="286" junction="-1">
        <link>
            <predecessor elementType="junction" elementId="8"/>
            <successor elementType="junction" elementId="7"/>
        </link>
        <type s="0" type="town"/>
        <planView>
            <geometry s="0.00000000" x="-6130623.79110495" y="8146657.40765687" hdg="3.03898376" length="78.99436027">
                <line/>
            </geometry>
            <geometry s="78.99436027" x="-6130702.36998051" y="8146665.49896520" hdg="3.03898376" length="13.88999998">
                <paramPoly3 aU="0.00000000" bU="10.41749998" cU="10.41749998" dU="-6.94500001" aV="-0.00000000" bV="0.00000000" cV="-0.00130057" dV="0.00043352" pRange="normalized"/>
            </geometry>
            <geometry s="92.88436025" x="-6130716.18683476" y="8146666.92256562" hdg="3.03885891" length="73.10581529">
                <line/>
            </geometry>
            <geometry s="165.99017554" x="-6130788.90720174" y="8146674.41979539" hdg="3.03885891" length="13.88999999">
                <paramPoly3 aU="0.00000000" bU="10.41749999" cU="10.41749999" dU="-6.94500001" aV="-0.00000000" bV="-0.00000000" cV="0.00103199" dV="-0.00034400" pRange="normalized"/>
            </geometry>
            <geometry s="179.88017553" x="-6130802.72403764" y="8146675.84357392" hdg="3.03895798" length="149.61189324">
                <line/>
            </geometry>
            <geometry s="329.49206876" x="-6130951.54862570" y="8146691.17199807" hdg="3.03895798" length="13.88999996">
                <paramPoly3 aU="0.00000000" bU="10.41749997" cU="10.41749997" dU="-6.94500002" aV="-0.00000000" bV="-0.00000000" cV="-0.00167124" dV="0.00055708" pRange="normalized"/>
            </geometry>
            <geometry s="343.38206873" x="-6130965.36541788" y="8146692.59620052" hdg="3.03879755" length="107.71209985">
                <line/>
            </geometry>
            <geometry s="451.09416858" x="-6131072.50893076" y="8146703.64898760" hdg="3.03879755" length="13.88999993">
                <paramPoly3 aU="0.00000000" bU="10.41749993" cU="10.41749993" dU="-6.94500005" aV="-0.00000000" bV="0.00000000" cV="0.00239717" dV="-0.00079906" pRange="normalized"/>
            </geometry>
            <geometry s="464.98416851" x="-6131086.32577251" y="8146705.07270864" hdg="3.03902766" length="101.56671539">
                <line/>
            </geometry>
            <geometry s="566.55088391" x="-6131187.35873656" y="8146715.47164373" hdg="3.03902766" length="13.89000000">
                <paramPoly3 aU="0.00000000" bU="10.41750000" cU="10.41750000" dU="-6.94500000" aV="-0.00000000" bV="-0.00000000" cV="-0.00023828" dV="0.00007942" pRange="normalized"/>
            </geometry>
            <geometry s="580.44088391" x="-6131201.17572585" y="8146716.89393307" hdg="3.03900479" length="128.61055660">
                <line/>
            </geometry>
            <geometry s="709.05144051" x="-6131329.11010965" y="8146730.06468522" hdg="3.03900479" length="13.88999992">
                <paramPoly3 aU="0.00000000" bU="10.41749992" cU="10.41749992" dU="-6.94500005" aV="-0.00000000" bV="-0.00000000" cV="-0.00257527" dV="0.00085842" pRange="normalized"/>
            </geometry>
            <geometry s="722.94144043" x="-6131342.92690664" y="8146731.48884038" hdg="3.03875758" length="125.10481961">
                <line/>
            </geometry>
            <geometry s="848.04626004" x="-6131467.37081399" y="8146744.33134067" hdg="3.03875758" length="13.88999998">
                <paramPoly3 aU="0.00000000" bU="10.41749998" cU="10.41749998" dU="-6.94500001" aV="-0.00000000" bV="-0.00000000" cV="0.00138553" dV="-0.00046184" pRange="normalized"/>
            </geometry>
            <geometry s="861.93626001" x="-6131481.18752971" y="8146745.75628482" hdg="3.03889058" length="72.30373854">
                <line/>
            </geometry>
            <geometry s="934.23999855" x="-6131553.11028366" y="8146753.16898141" hdg="3.03889058" length="13.88999999">
                <paramPoly3 aU="0.00000000" bU="10.41749999" cU="10.41749999" dU="-6.94500001" aV="-0.00000000" bV="-0.00000000" cV="-0.00087772" dV="0.00029257" pRange="normalized"/>
            </geometry>
            <geometry s="948.12999854" x="-6131566.92703412" y="8146754.59358881" hdg="3.03880633" length="41.23100952">
                <line/>
            </geometry>
            <geometry s="989.36100806" x="-6131607.94043193" y="8146758.82411440" hdg="3.03880633" length="13.89000000">
                <paramPoly3 aU="0.00000000" bU="10.41750000" cU="10.41750000" dU="-6.94500000" aV="-0.00000000" bV="0.00000000" cV="-0.00037731" dV="0.00012577" pRange="normalized"/>
            </geometry>
            <geometry s="1003.25100806" x="-6131621.75709656" y="8146760.24955408" hdg="3.03877011" length="123.90691985">
                <line/>
            </geometry>
            <geometry s="1127.15792791" x="-6131745.00959182" y="8146772.96754134" hdg="3.03877011" length="13.88999989">
                <paramPoly3 aU="0.00000000" bU="10.41749990" cU="10.41749990" dU="-6.94500007" aV="-0.00000000" bV="-0.00000000" cV="0.00289167" dV="-0.00096389" pRange="normalized"/>
            </geometry>
            <geometry s="1141.04792780" x="-6131758.82642825" y="8146774.39131360" hdg="3.03904769" length="54.63334802">
                <line/>
            </geometry>
            <geometry s="1195.68127583" x="-6131813.17278022" y="8146779.98387510" hdg="3.03904769" length="13.88999999">
                <paramPoly3 aU="0.00000000" bU="10.41749999" cU="10.41749999" dU="-6.94500001" aV="-0.00000000" bV="0.00000000" cV="-0.00080814" dV="0.00026938" pRange="normalized"/>
            </geometry>
            <geometry s="1209.57127582" x="-6131826.98975908" y="8146781.40626566" hdg="3.03897011" length="35.53231464">
                <line/>
            </geometry>
        </planView>
        <elevationProfile>
            <elevation s="0" a="0.00" b="0" c="0" d="0"/>
        </elevationProfile>
        <lateralProfile/>
        <lanes>
            <laneSection s="0">
                <center>
                    <lane id="0" type="none" level="true">
                        <link/>
                        <roadMark sOffset="0" type="solid" weight="standard" color="standard" width="0.13" laneChange="none"/>
                    </lane>
                </center>
                <right>
                    <lane id="-1" type="driving" level="true">
                        <link/>
                        <width sOffset="0" a="3.50" b="0" c="0" d="0"/>
                        <roadMark sOffset="0" type="solid" weight="standard" color="standard" width="0.13" laneChange="none"/>
                        <speed sOffset="0" max="13.89"/>
                    </lane>
                    <lane id="-2" type="sidewalk" level="true">
                        <link/>
                        <width sOffset="0" a="2.80" b="0" c="0" d="0"/>
                        <roadMark sOffset="0" type="solid" weight="standard" color="standard" width="0.13" laneChange="none"/>
                        <speed sOffset="0" max="13.89"/>
                    </lane>
                 </right>
            </laneSection>
        </lanes>
        <objects/>
    </road>
    <road name="West 2nd Street" length="702.99797274" id="287" junction="-1">
        <link>
            <successor elementType="junction" elementId="1"/>
        </link>
        <type s="0" type="town"/>
        <planView>
            <geometry s="0.00000000" x="-6132137.52745433" y="8146098.87868306" hdg="1.46512598" length="68.27519596">
                <line/>
            </geometry>
            <geometry s="68.27519596" x="-6132130.32620967" y="8146166.77304556" hdg="1.46512598" length="7.37941223">
                <paramPoly3 aU="0.00000000" bU="5.53455893" cU="5.53456060" dU="-3.68970777" aV="0.00000000" bV="0.00000000" cV="-0.00929411" dV="0.00780990" pRange="normalized"/>
            </geometry>
            <geometry s="75.65460820" x="-6132129.54639911" y="8146174.11113902" hdg="1.46600075" length="75.57086871">
                <line/>
            </geometry>
            <geometry s="151.22547690" x="-6132121.64139384" y="8146249.26742345" hdg="1.46600075" length="11.17599938">
                <paramPoly3 aU="0.00000000" bU="8.38199941" cU="8.38199941" dU="-5.58800039" aV="0.00000000" bV="0.00000000" cV="-0.00628379" dV="0.00209460" pRange="normalized"/>
            </geometry>
            <geometry s="162.40147628" x="-6132120.46817495" y="8146260.38167177" hdg="1.46525107" length="80.77388425">
                <line/>
            </geometry>
            <geometry s="243.17536053" x="-6132111.95869438" y="8146340.70607104" hdg="1.46525107" length="11.17599996">
                <paramPoly3 aU="0.00000000" bU="8.38199996" cU="8.38199996" dU="-5.58800003" aV="0.00000000" bV="0.00000000" cV="-0.00166680" dV="0.00055560" pRange="normalized"/>
            </geometry>
            <geometry s="254.35136049" x="-6132110.78020444" y="8146351.81976242" hdg="1.46505222" length="82.62226165">
                <line/>
            </geometry>
            <geometry s="336.97362213" x="-6132102.05966022" y="8146433.98052087" hdg="1.46505222" length="11.17599992">
                <paramPoly3 aU="0.00000000" bU="8.38199993" cU="8.38199993" dU="-5.58800005" aV="0.00000000" bV="-0.00000000" cV="0.00222578" dV="-0.00074193" pRange="normalized"/>
            </geometry>